obj01
  PyMOL2.4          3D                             0

 30 32  0  0  0  0  0  0  0  0999 V2000
   26.7410   -4.3360   31.9420 Cl  0  0  0  0  0  0  0  0  0  0  0  0
   29.5100   -5.2780   32.7970 C   0  0  0  0  0  0  0  0  0  0  0  0
   30.1350   -6.3150   33.0750 O   0  0  0  0  0  0  0  0  0  0  0  0
   29.6670   -4.7350   31.6930 O   0  0  0  0  0  0  0  0  0  0  0  0
   26.8160   -3.5670   35.6610 C   0  0  0  0  0  0  0  0  0  0  0  0
   25.2760   -1.1690   35.1390 N   0  0  0  0  0  0  0  0  0  0  0  0
   23.2040   -0.9450   31.8650 O   0  0  0  0  0  0  0  0  0  0  0  0
   24.6310    0.0420   34.8920 C   0  0  0  0  0  0  0  0  0  0  0  0
   28.1070   -3.9710   36.0580 C   0  0  0  0  0  0  0  0  0  0  0  0
   24.6340    0.5440   33.6180 N   0  0  0  0  0  0  0  0  0  0  0  0
   28.9820   -4.5320   35.1390 C   0  0  0  0  0  0  0  0  0  0  0  0
   23.9440    0.6800   35.8860 N   0  0  0  0  0  0  0  0  0  0  0  0
   23.9850    0.0940   37.2170 C   0  0  0  0  0  0  0  0  0  0  0  0
   28.5780   -4.6840   33.7990 C   0  0  0  0  0  0  0  0  0  0  0  0
   24.7030   -1.1680   37.4670 C   0  0  0  0  0  0  0  0  0  0  0  0
   27.2240   -4.2230   33.3810 C   0  0  0  0  0  0  0  0  0  0  0  0
   25.3300   -1.7820   36.3630 C   0  0  0  0  0  0  0  0  0  0  0  0
   26.3940   -3.6880   34.3530 C   0  0  0  0  0  0  0  0  0  0  0  0
   25.9890   -2.9740   36.5700 N   0  0  0  0  0  0  0  0  0  0  0  0
   24.5060   -1.4480   38.7840 N   0  0  0  0  0  0  0  0  0  0  0  0
   23.7470   -0.4480   39.3040 C   0  0  0  0  0  0  0  0  0  0  0  0
   22.6470    1.7330   38.7140 C   0  0  0  0  0  0  0  0  0  0  0  0
   23.4030    0.4990   38.3800 N   0  0  0  0  0  0  0  0  0  0  0  0
   21.2420    1.8350   38.1350 C   0  0  0  0  0  0  0  0  0  0  0  0
   23.4690    2.8820   38.1590 C   0  0  0  0  0  0  0  0  0  0  0  0
   25.3470   -0.2440   32.6130 C   0  0  0  0  0  0  0  0  0  0  0  0
   26.2920    0.5610   31.6970 C   0  0  0  0  0  0  0  0  0  0  0  0
   26.0990    0.3400   30.2020 C   0  0  0  0  0  0  0  0  0  0  0  0
   24.5370   -1.3740   31.9510 C   0  0  0  0  0  0  0  0  0  0  0  0
   26.4770    2.0350   32.1370 C   0  0  0  0  0  0  0  0  0  0  0  0
  2  3  4  0  0  0  0
  2  4  4  0  0  0  0
  5  9  4  0  0  0  0
  5 18  4  0  0  0  0
  6  8  4  0  0  0  0
  6 17  4  0  0  0  0
  8 10  1  0  0  0  0
  9 11  4  0  0  0  0
 10 26  1  0  0  0  0
 11 14  4  0  0  0  0
  8 12  4  0  0  0  0
 12 13  4  0  0  0  0
 13 15  4  0  0  0  0
  2 14  1  0  0  0  0
 14 16  4  0  0  0  0
 15 20  4  0  0  0  0
  1 16  1  0  0  0  0
 16 18  4  0  0  0  0
 15 17  4  0  0  0  0
 17 19  1  0  0  0  0
  5 19  1  0  0  0  0
 20 21  4  0  0  0  0
 22 23  1  0  0  0  0
 22 24  1  0  0  0  0
 22 25  1  0  0  0  0
 13 23  4  0  0  0  0
 21 23  4  0  0  0  0
 26 27  1  0  0  0  0
 26 29  1  0  0  0  0
 27 28  1  0  0  0  0
 27 30  1  0  0  0  0
  7 29  1  0  0  0  0
M  END
$$$$
