obj02
  PyMOL2.4          3D                             0

 21 21  0  0  0  0  0  0  0  0999 V2000
  -56.0030   10.8870  -76.2980 C   0  0  0  0  0  0  0  0  0  0  0  0
  -55.6830   12.3460  -76.0630 C   0  0  0  0  0  0  0  0  0  0  0  0
  -54.2080   12.5700  -76.3130 C   0  0  0  0  0  0  0  0  0  0  0  0
  -53.9920   13.8960  -77.0110 C   0  0  0  0  0  0  0  0  0  0  0  0
  -54.4970   13.8230  -78.4350 C   0  0  0  0  0  0  0  0  0  0  0  0
  -53.8830   12.6330  -79.1410 C   0  0  0  0  0  0  0  0  0  0  0  0
  -53.4940   13.0330  -80.5460 C   0  0  0  0  0  0  0  0  0  0  0  0
  -52.0510   12.6450  -80.7780 C   0  0  0  0  0  0  0  0  0  0  0  0
  -51.9170   11.1430  -80.6830 C   0  0  0  0  0  0  0  0  0  0  0  0
  -51.5670    9.3670  -82.1770 C   0  0  0  0  0  0  0  0  0  0  0  0
  -51.2400   10.6850  -81.8260 O   0  0  0  0  0  0  0  0  0  0  0  0
  -51.7410    9.2800  -83.6740 C   0  0  0  0  0  0  0  0  0  0  0  0
  -52.7610   10.1600  -84.0850 O   0  0  0  0  0  0  0  0  0  0  0  0
  -52.1050    7.8610  -84.0470 C   0  0  0  0  0  0  0  0  0  0  0  0
  -52.0870    7.7310  -85.4480 O   0  0  0  0  0  0  0  0  0  0  0  0
  -51.1070    6.9030  -83.4350 C   0  0  0  0  0  0  0  0  0  0  0  0
  -51.5470    5.5800  -83.6190 O   0  0  0  0  0  0  0  0  0  0  0  0
  -50.9790    7.1880  -81.9550 C   0  0  0  0  0  0  0  0  0  0  0  0
  -50.5300    8.5080  -81.7760 O   0  0  0  0  0  0  0  0  0  0  0  0
  -49.9900    6.2250  -81.3360 C   0  0  0  0  0  0  0  0  0  0  0  0
  -49.4980    6.7630  -80.1290 O   0  0  0  0  0  0  0  0  0  0  0  0
  1  2  1  0  0  0  0
  2  3  1  0  0  0  0
  3  4  1  0  0  0  0
  4  5  1  0  0  0  0
  5  6  1  0  0  0  0
  6  7  1  0  0  0  0
  7  8  1  0  0  0  0
  8  9  1  0  0  0  0
  9 11  1  0  0  0  0
 10 11  1  0  0  0  0
 10 12  1  0  0  0  0
 10 19  1  0  0  0  0
 12 13  1  0  0  0  0
 12 14  1  0  0  0  0
 14 15  1  0  0  0  0
 14 16  1  0  0  0  0
 16 17  1  0  0  0  0
 16 18  1  0  0  0  0
 18 19  1  0  0  0  0
 18 20  1  0  0  0  0
 20 21  1  0  0  0  0
M  END
$$$$
